/*--------------------------------*- C++ -*----------------------------------*\
| =========                 |                                                 |
| \\      /  F ield         | OpenFOAM: The Open Source CFD Toolbox           |
|  \\    /   O peration     | Version:  v2012                                 |
|   \\  /    A nd           | Website:  www.openfoam.com                      |
|    \\/     M anipulation  |                                                 |
\*---------------------------------------------------------------------------*/
FoamFile
{
    version     2.0;
    format      ascii;
    class       dictionary;
    object      fvSchemes;
}
// * * * * * * * * * * * * * * * * * * * * * * * * * * * * * * * * * * * * * //

ddtSchemes
{
    default         steadyState;
}

gradSchemes
{
    default         cellLimited Gauss linear 0.5;
    grad(U)	    faceLimited Gauss linear 1.0;
}

divSchemes
{
    default         none;
    div(phi,U)      bounded Gauss linearUpwind grad(U);
                        //0.01                  // Co below which scheme1 is used
                        //limitedLinearV 1      // scheme1
                        //0.05                  // Co above which scheme2 is used
                        //linearUpwind grad(U); // scheme2
    div(phi,k)     bounded  Gauss linearUpwind grad(k);
    div(phi,epsilon) bounded Gauss linearUpwind grad(epsilon);
    div(phi,omega)  Gauss limitedLinear 1;
    //div(phi,R)      Gauss limitedLinear 1;
    //div(R)          Gauss linear;
    //div(U)          Gauss linear;             // enables div function object
    //div(phi,nuTilda) Gauss limitedLinear 1;
    div((nuEff*dev2(T(grad(U))))) Gauss linear;
}

laplacianSchemes
{
    default         Gauss linear uncorrected;
}

interpolationSchemes
{
    default         linear;
}

snGradSchemes
{
    default         corrected;
}


// ************************************************************************* //
